data_image0
_chemical_formula_structural       Ar512
_chemical_formula_sum              "Ar512"
_cell_length_a       10.0
_cell_length_b       10.0
_cell_length_c       10.0
_cell_angle_alpha    90.0
_cell_angle_beta     90.0
_cell_angle_gamma    90.0

_space_group_name_H-M_alt    "P 1"
_space_group_IT_number       1

loop_
  _space_group_symop_operation_xyz
  'x, y, z'

loop_
  _atom_site_type_symbol
  _atom_site_label
  _atom_site_symmetry_multiplicity
  _atom_site_fract_x
  _atom_site_fract_y
  _atom_site_fract_z
  _atom_site_occupancy
  Ar  Ar1       1.0  0.9756121451035947  0.13090208132494877  0.40954467326719296  1.0000
  Ar  Ar2       1.0  0.08746657159461042  0.1463267047816973  0.41997501816682165  1.0000
  Ar  Ar3       1.0  0.3908183761975017  0.8183653823741717  0.7067026026009487  1.0000
  Ar  Ar4       1.0  0.06809578985668376  0.3348323089896667  0.3874503706811642  1.0000
  Ar  Ar5       1.0  0.9962425961262906  0.9929378040557277  0.34393571110703036  1.0000
  Ar  Ar6       1.0  0.0485024406700639  0.008667934503018244  0.2528557661501263  1.0000
  Ar  Ar7       1.0  0.21871227860921924  0.3511817967914048  0.5824316709859436  1.0000
  Ar  Ar8       1.0  0.13666142957999913  0.6330128162737095  0.34551102814332596  1.0000
  Ar  Ar9       1.0  0.291423345712479  0.8280336270568596  0.29806369247064474  1.0000
  Ar  Ar10      1.0  0.29764558142316355  0.6757900104982854  0.5795744087719004  1.0000
  Ar  Ar11      1.0  0.02846867313124949  0.6220788434765862  0.3430190147145494  1.0000
  Ar  Ar12      1.0  0.23529731385838085  0.735709724795616  0.5164237121348884  1.0000
  Ar  Ar13      1.0  0.2832980495081597  0.8100756462829083  0.4502653177628109  1.0000
  Ar  Ar14      1.0  0.29105734344492523  0.69886833501389  0.6916104413371735  1.0000
  Ar  Ar15      1.0  0.02388100940364042  0.2776525108471808  0.3007912297699131  1.0000
  Ar  Ar16      1.0  0.6730981543894079  0.37664433572476147  0.34517089361379577  1.0000
  Ar  Ar17      1.0  0.9470315270029901  0.7863026356200193  0.5523039817752635  1.0000
  Ar  Ar18      1.0  0.4167757984030536  0.5727393795557884  0.5727297154835623  1.0000
  Ar  Ar19      1.0  0.08950736877358945  0.5924530134777335  0.251589756951283  1.0000
  Ar  Ar20      1.0  0.3995113512656926  0.8463797847268277  0.2978550278487423  1.0000
  Ar  Ar21      1.0  0.47386577136549707  0.07609949791192282  0.5928849501332054  1.0000
  Ar  Ar22      1.0  0.3268650325346743  0.473392685013623  0.39431651609864143  1.0000
  Ar  Ar23      1.0  0.11064216584013264  0.4402067146154014  0.37978403623537355  1.0000
  Ar  Ar24      1.0  0.6758128381357633  0.8022964068094238  0.6267549071344586  1.0000
  Ar  Ar25      1.0  0.231078469498538  0.7554976915507225  0.6243896186221606  1.0000
  Ar  Ar26      1.0  0.0288881732636559  0.9984308184713736  0.7409170428889039  1.0000
  Ar  Ar27      1.0  0.6255769044798383  0.7318347766929962  0.440615163725455  1.0000
  Ar  Ar28      1.0  0.26019891367929127  0.4094283964344405  0.6825971791496701  1.0000
  Ar  Ar29      1.0  0.8332646368879646  0.8820450214041039  0.30541168643556066  1.0000
  Ar  Ar30      1.0  0.5671153995610096  0.7925905276003397  0.368784306352464  1.0000
  Ar  Ar31      1.0  0.3393781868631139  0.7708726871311189  0.6224666293523249  1.0000
  Ar  Ar32      1.0  0.3850912926089942  0.052433997835084484  0.25742627978026306  1.0000
  Ar  Ar33      1.0  0.4919266762709902  0.828856783911612  0.7114933615407825  1.0000
  Ar  Ar34      1.0  0.9166095834885081  0.16627407041370493  0.4892460456845942  1.0000
  Ar  Ar35      1.0  0.8327239248260139  0.9688540394442106  0.2424831442468534  1.0000
  Ar  Ar36      1.0  0.6834809597481617  0.6704410216663028  0.5040810647149724  1.0000
  Ar  Ar37      1.0  0.9281363917986305  0.008219291348651176  0.5770934986378087  1.0000
  Ar  Ar38      1.0  0.025773837611183195  0.4508520032639882  0.7341263697023785  1.0000
  Ar  Ar39      1.0  0.7773534339851884  0.829889798482067  0.4798519468382412  1.0000
  Ar  Ar40      1.0  0.28471239596298975  0.20146905150737648  0.6901993039944674  1.0000
  Ar  Ar41      1.0  0.5589923050912105  0.9049221276672519  0.3779111082007778  1.0000
  Ar  Ar42      1.0  0.6844718202501423  0.6582957418199178  0.6601365066503229  1.0000
  Ar  Ar43      1.0  0.2631342824566342  0.5359370842809542  0.32634615223091185  1.0000
  Ar  Ar44      1.0  0.41172463499655426  0.11395314668977388  0.6773894519918702  1.0000
  Ar  Ar45      1.0  0.7052950905421653  0.9881118816728218  0.5710118075922688  1.0000
  Ar  Ar46      1.0  0.2043873328673836  0.5719119382660661  0.40917921179455885  1.0000
  Ar  Ar47      1.0  0.2806846005617159  0.26390548042849316  0.5954798460538858  1.0000
  Ar  Ar48      1.0  0.19838274337893771  0.4942523853793895  0.6558448681467188  1.0000
  Ar  Ar49      1.0  0.19379148821270212  0.16029473586407522  0.42425432921087397  1.0000
  Ar  Ar50      1.0  0.4026522184969428  0.7082622506035742  0.6913112673070777  1.0000
  Ar  Ar51      1.0  0.04287224471479181  0.47219129855148556  0.460574949127889  1.0000
  Ar  Ar52      1.0  0.8242290916081334  0.8704958357612352  0.7163889826153707  1.0000
  Ar  Ar53      1.0  0.6993713336953796  0.46521039697291217  0.6989445920108815  1.0000
  Ar  Ar54      1.0  0.3204536454031761  0.015681393204392657  0.506705446288281  1.0000
  Ar  Ar55      1.0  0.1638149133611743  0.9519851839101815  0.4202316642875812  1.0000
  Ar  Ar56      1.0  0.28368318910530627  0.36459081187174325  0.40363636163860134  1.0000
  Ar  Ar57      1.0  0.7981511195449136  0.6694109565642649  0.6677770846426414  1.0000
  Ar  Ar58      1.0  0.43440664726750006  0.05632638141207683  0.3579322467214078  1.0000
  Ar  Ar59      1.0  0.17633513863628092  0.3547246103292682  0.39698945416270254  1.0000
  Ar  Ar60      1.0  0.4316720978459645  0.8925957396509574  0.6418222822960888  1.0000
  Ar  Ar61      1.0  0.3294741972933173  0.035313598882480146  0.35124362580226304  1.0000
  Ar  Ar62      1.0  0.049882352392524254  0.8816756961925449  0.7174463160323996  1.0000
  Ar  Ar63      1.0  0.9210995367993281  0.9908378157860115  0.7326976142796413  1.0000
  Ar  Ar64      1.0  0.2668374712819277  0.9396932727171375  0.5707482842542159  1.0000
  Ar  Ar65      1.0  0.3140222570343938  0.9871210928712668  0.6623779405500247  1.0000
  Ar  Ar66      1.0  0.868337824927139  0.06825539404408684  0.5024447605562864  1.0000
  Ar  Ar67      1.0  0.9531469923362824  0.7689446895776489  0.44473062519820605  1.0000
  Ar  Ar68      1.0  0.367791642361651  0.4685828567584054  0.5819659405638782  1.0000
  Ar  Ar69      1.0  0.8728770033109937  0.4914730388290817  0.5248236173512576  1.0000
  Ar  Ar70      1.0  0.8034470392203362  0.6830848920717449  0.5084754683345344  1.0000
  Ar  Ar71      1.0  0.7169833246537589  0.42958040900016  0.42947583768117525  1.0000
  Ar  Ar72      1.0  0.9337994983301503  0.45544361296396013  0.4468410439620663  1.0000
  Ar  Ar73      1.0  0.046122561105292184  0.9120003858154716  0.569191665973104  1.0000
  Ar  Ar74      1.0  0.9130729664738859  0.7156598391670861  0.35475289091351475  1.0000
  Ar  Ar75      1.0  0.24052759543222876  0.21416681837678656  0.5097032352378293  1.0000
  Ar  Ar76      1.0  0.30530565468014026  0.1248052318072344  0.5186343823570876  1.0000
  Ar  Ar77      1.0  0.13057300930244434  0.7408328444724548  0.36491070602481196  1.0000
  Ar  Ar78      1.0  0.12062542923018178  0.8562764222383376  0.38318455562741055  1.0000
  Ar  Ar79      1.0  0.42241444391723465  0.6007010902771284  0.4185564771336006  1.0000
  Ar  Ar80      1.0  0.018780639335149993  0.7081218504318265  0.5098383720450073  1.0000
  Ar  Ar81      1.0  3.6336095549171425e-05  0.2717606235687657  0.6748626972115322  1.0000
  Ar  Ar82      1.0  0.957477122607214  0.16856284281021422  0.6779784254346564  1.0000
  Ar  Ar83      1.0  0.9362447978566005  0.40699673297578376  0.5483672028761254  1.0000
  Ar  Ar84      1.0  0.26725096309073354  0.9147429102044371  0.7256478868592097  1.0000
  Ar  Ar85      1.0  0.30378680887441356  0.17734211341019146  0.4259623199606076  1.0000
  Ar  Ar86      1.0  0.19487038242321553  0.10804376370279759  0.519620943537367  1.0000
  Ar  Ar87      1.0  0.28454174168186896  0.4221615585064566  0.3100140402275474  1.0000
  Ar  Ar88      1.0  0.43520024956336195  0.43554196137406703  0.4961816392645914  1.0000
  Ar  Ar89      1.0  0.7577757597219865  0.47853211329349554  0.5141037446551129  1.0000
  Ar  Ar90      1.0  0.6287166424835675  0.7446513198984688  0.28476236490565576  1.0000
  Ar  Ar91      1.0  0.3911972671099644  0.2777096400977805  0.5991427401856891  1.0000
  Ar  Ar92      1.0  0.8422851077376926  0.7658985654403851  0.7147536609165157  1.0000
  Ar  Ar93      1.0  0.4987296556021303  0.34814208312142964  0.5068537599937826  1.0000
  Ar  Ar94      1.0  0.4252246213876072  0.027303477704770096  0.5094609155379739  1.0000
  Ar  Ar95      1.0  0.06456112719629926  0.558349370726625  0.7246212284196067  1.0000
  Ar  Ar96      1.0  0.8922933876244699  0.850883667572655  0.47621982204137536  1.0000
  Ar  Ar97      1.0  0.17989195791061274  0.8194488426048316  0.28747127021676006  1.0000
  Ar  Ar98      1.0  0.3338184232957296  0.8830663999500434  0.3825435685028209  1.0000
  Ar  Ar99      1.0  0.5059622871060068  0.8545690187664485  0.295770398240013  1.0000
  Ar  Ar100     1.0  0.4664606205244435  0.04939984474860024  0.7553528099491446  1.0000
  Ar  Ar101     1.0  0.7053850509765529  0.9706250706499413  0.7246686565156595  1.0000
  Ar  Ar102     1.0  0.13728686959959222  0.6054583231954819  0.494224583466218  1.0000
  Ar  Ar103     1.0  0.6585440318887201  0.9375790705472764  0.48706849426398735  1.0000
  Ar  Ar104     1.0  0.503961719517484  0.24195658114505944  0.7071753007225853  1.0000
  Ar  Ar105     1.0  0.42255264858246344  0.6255153897203618  0.26277471990597673  1.0000
  Ar  Ar106     1.0  0.9377482754439234  0.3570404172466208  0.6510014277037954  1.0000
  Ar  Ar107     1.0  0.07871129350381972  0.647426306154149  0.5730745958498965  1.0000
  Ar  Ar108     1.0  0.13242067608085892  0.25147975624141855  0.4043604211425826  1.0000
  Ar  Ar109     1.0  0.17130855130610068  0.4126580306803771  0.30092389410582404  1.0000
  Ar  Ar110     1.0  0.30577671084335  0.09159940770435018  0.679309450874997  1.0000
  Ar  Ar111     1.0  0.9792888247471808  0.0611886664680705  0.6675038763903341  1.0000
  Ar  Ar112     1.0  0.517602668165089  0.7435133014782123  0.28111571243917227  1.0000
  Ar  Ar113     1.0  0.41108077375700164  0.19402689275408821  0.4288315998974217  1.0000
  Ar  Ar114     1.0  0.990460807018083  0.9747322300927351  0.4961765505731355  1.0000
  Ar  Ar115     1.0  0.6630530438516375  0.9140234363546256  0.6369950151433488  1.0000
  Ar  Ar116     1.0  0.5953321390348928  0.976665431783744  0.569300457322771  1.0000
  Ar  Ar117     1.0  0.830246336888889  0.483067174039537  0.33590683699194834  1.0000
  Ar  Ar118     1.0  0.18338937044022796  0.7081731823823985  0.27754195897822725  1.0000
  Ar  Ar119     1.0  0.48030283713823696  0.4344398268502334  0.6795236107886591  1.0000
  Ar  Ar120     1.0  0.15186792909593821  0.4909224128962005  0.4649896663911368  1.0000
  Ar  Ar121     1.0  0.280022257993442  0.8068024707513924  0.7097250169603244  1.0000
  Ar  Ar122     1.0  0.10755460066366457  0.3351282304222235  0.5759357002990458  1.0000
  Ar  Ar123     1.0  0.8501391632162199  0.24887898200959224  0.4663813221291814  1.0000
  Ar  Ar124     1.0  0.6362333857807267  0.6170529227162748  0.42429474065452244  1.0000
  Ar  Ar125     1.0  0.3655432590267536  0.06437107909540882  0.5924339447820596  1.0000
  Ar  Ar126     1.0  0.7721771780615071  0.9474784243992924  0.4890685668935224  1.0000
  Ar  Ar127     1.0  0.9112299052106148  0.44268078433937497  0.7244078706941648  1.0000
  Ar  Ar128     1.0  0.8166449607497008  0.00010037314846499946  0.5708641273908754  1.0000
  Ar  Ar129     1.0  0.5155701895160965  0.21120357510883656  0.436715808680986  1.0000
  Ar  Ar130     1.0  0.7254079394640462  0.27272598681806415  0.7246731407784871  1.0000
  Ar  Ar131     1.0  0.6062060344771849  0.03332660131663332  0.2952486289891522  1.0000
  Ar  Ar132     1.0  0.041783146107449126  0.5119110713892411  0.32387376008933705  1.0000
  Ar  Ar133     1.0  0.850507225982323  0.3550134137516083  0.26702503257463583  1.0000
  Ar  Ar134     1.0  0.17142206890858314  0.9283222971410373  0.31384721637722707  1.0000
  Ar  Ar135     1.0  0.4537362537330821  0.7623574385323963  0.5173818235829727  1.0000
  Ar  Ar136     1.0  0.5459408061811453  0.3948483995887044  0.6003332608022264  1.0000
  Ar  Ar137     1.0  0.1367190681967356  0.14966841498761607  0.6039557530043133  1.0000
  Ar  Ar138     1.0  0.7190383745834437  0.47260247341198225  0.3238061816437493  1.0000
  Ar  Ar139     1.0  0.6582330818981554  0.5248972012154288  0.2529741456387007  1.0000
  Ar  Ar140     1.0  0.6515149083899283  0.46106532824791313  0.5153317155909384  1.0000
  Ar  Ar141     1.0  0.7732799158834438  0.9588781798945156  0.33965956877406606  1.0000
  Ar  Ar142     1.0  0.7304608740687879  0.9541811172443286  0.23572589945449512  1.0000
  Ar  Ar143     1.0  0.1885098011976667  0.6565094570106998  0.5795553316397967  1.0000
  Ar  Ar144     1.0  0.1673958134574982  0.8114007521563901  0.5576073633175885  1.0000
  Ar  Ar145     1.0  0.5159662465931922  0.726075754767427  0.439773083700307  1.0000
  Ar  Ar146     1.0  0.9149027153597058  0.21399164155946748  0.38683460137432  1.0000
  Ar  Ar147     1.0  0.2506538907879039  0.6194495855934812  0.4951594002978822  1.0000
  Ar  Ar148     1.0  0.6489668616535351  0.08357460205591377  0.382732517174491  1.0000
  Ar  Ar149     1.0  0.9474686423431546  0.9251904748306343  0.41231749253971295  1.0000
  Ar  Ar150     1.0  0.04374928023271141  0.3721603363632908  0.6587459914632656  1.0000
  Ar  Ar151     1.0  0.5822896665060878  0.4996578883855725  0.5940105671170568  1.0000
  Ar  Ar152     1.0  0.7442327847030801  0.5708603924975154  0.6809537532887782  1.0000
  Ar  Ar153     1.0  0.07436168276664938  0.804748616695062  0.29770778261242364  1.0000
  Ar  Ar154     1.0  0.6359213908700758  0.5535879561297573  0.6822092408983182  1.0000
  Ar  Ar155     1.0  0.7516169501868557  0.6320298907156398  0.4273927463632647  1.0000
  Ar  Ar156     1.0  0.9633123687979851  0.5386434753485133  0.7165171801636365  1.0000
  Ar  Ar157     1.0  0.05716672472980525  0.8035689560289998  0.5521778214467408  1.0000
  Ar  Ar158     1.0  0.6456967206144304  0.04821400063162258  0.5016088150695294  1.0000
  Ar  Ar159     1.0  0.11090019221919059  0.8511995340351307  0.6366539570951124  1.0000
  Ar  Ar160     1.0  0.9376769739955952  0.900545573097486  0.5642505188519867  1.0000
  Ar  Ar161     1.0  0.5877245920754057  0.547491066818269  0.4961436693763287  1.0000
  Ar  Ar162     1.0  0.802220967999986  0.20012554778176728  0.3802155947299082  1.0000
  Ar  Ar163     1.0  0.5652360573407992  0.25694784436689994  0.5244720840129625  1.0000
  Ar  Ar164     1.0  0.06402737890573777  0.23075657390359053  0.5891327011024445  1.0000
  Ar  Ar165     1.0  0.5847902548830275  0.12997218217549159  0.458708040281423  1.0000
  Ar  Ar166     1.0  0.8148309852709357  0.9788932312887227  0.7268665083017731  1.0000
  Ar  Ar167     1.0  0.9123852946366938  0.2678020719790507  0.29007153968854543  1.0000
  Ar  Ar168     1.0  0.3247856634023208  0.8802656354356652  0.6402318355061812  1.0000
  Ar  Ar169     1.0  0.8707081124706548  0.4452039169506725  0.6223860743239221  1.0000
  Ar  Ar170     1.0  0.7848943588593329  0.8098323681811502  0.37291074375724026  1.0000
  Ar  Ar171     1.0  0.06576415836844778  0.2835067510473758  0.48875305774403616  1.0000
  Ar  Ar172     1.0  0.5844726632397841  0.08946230979944264  0.5867680707655055  1.0000
  Ar  Ar173     1.0  0.1600996650349854  0.8982042770965144  0.7250749739523993  1.0000
  Ar  Ar174     1.0  0.9321791209584801  0.03231316184704748  0.42406029213839436  1.0000
  Ar  Ar175     1.0  0.13267218840977904  0.30003372149518887  0.31033482919845085  1.0000
  Ar  Ar176     1.0  0.05370073184699462  0.9346270054530479  0.41658596322161173  1.0000
  Ar  Ar177     1.0  0.9076783549575032  0.6978709917138235  0.5102232796613441  1.0000
  Ar  Ar178     1.0  0.3958727749441936  0.8234312902459792  0.449358079939075  1.0000
  Ar  Ar179     1.0  0.16064591153715535  0.9266424487963241  0.5703771323373198  1.0000
  Ar  Ar180     1.0  0.9585890996261661  0.2184872364769646  0.5767608200224854  1.0000
  Ar  Ar181     1.0  0.4365615886185399  0.3855811496518321  0.5929300437955927  1.0000
  Ar  Ar182     1.0  0.6174473240986251  0.24613470447484864  0.7187429307739976  1.0000
  Ar  Ar183     1.0  0.8251258110570139  0.05575843873089745  0.3189107905678606  1.0000
  Ar  Ar184     1.0  0.5437577344038002  0.4477406420585925  0.5032752250469629  1.0000
  Ar  Ar185     1.0  0.42374313927594376  0.0028993831672846308  0.6658716277445231  1.0000
  Ar  Ar186     1.0  0.7554847115278376  0.0379761088048083  0.6532987792607114  1.0000
  Ar  Ar187     1.0  0.5195965773058514  0.15454311390312628  0.5378244157853123  1.0000
  Ar  Ar188     1.0  0.28108455729124365  0.3146581158310839  0.5008038302365271  1.0000
  Ar  Ar189     1.0  0.5867742826392046  0.17244028048834228  0.3630259568260125  1.0000
  Ar  Ar190     1.0  0.46736766425316906  0.6539522579357172  0.502495245718719  1.0000
  Ar  Ar191     1.0  0.9791738515780676  0.5468780464202657  0.4141596041847465  1.0000
  Ar  Ar192     1.0  0.562039516951934  0.313086392802754  0.4292424031475592  1.0000
  Ar  Ar193     1.0  0.13011545258598065  0.19925730497311267  0.5046160043798634  1.0000
  Ar  Ar194     1.0  0.4368243052395997  0.9199027926529502  0.4980103770891806  1.0000
  Ar  Ar195     1.0  0.09037573686740709  0.5243040337070791  0.5485330809091535  1.0000
  Ar  Ar196     1.0  0.2594570344172793  0.505737109720611  0.479558640547906  1.0000
  Ar  Ar197     1.0  0.0021902580719438515  0.4191775324776472  0.3744903203166054  1.0000
  Ar  Ar198     1.0  0.8934798036265422  0.8247469327786832  0.3687333235833416  1.0000
  Ar  Ar199     1.0  0.3620677654354575  0.6603629303690588  0.3501575774007479  1.0000
  Ar  Ar200     1.0  0.37108899339964774  0.41612633937617627  0.6786415806963226  1.0000
  Ar  Ar201     1.0  0.5750729239269771  0.6631637580116468  0.508128772078861  1.0000
  Ar  Ar202     1.0  0.48711872780962556  0.96905209791625  0.5817807022845067  1.0000
  Ar  Ar203     1.0  0.8848986092716425  0.9758899944680699  0.34673695605066507  1.0000
  Ar  Ar204     1.0  0.7668017486089678  0.37757430610783205  0.7185014550168553  1.0000
  Ar  Ar205     1.0  0.15025806757412496  0.4352386297584486  0.5657957503496334  1.0000
  Ar  Ar206     1.0  0.9778447285325298  0.5102550216670235  0.5353839007206171  1.0000
  Ar  Ar207     1.0  0.5714022571089088  0.4233087912039091  0.23449251895256343  1.0000
  Ar  Ar208     1.0  0.9588387839999148  0.36740524982105777  0.28114270704377803  1.0000
  Ar  Ar209     1.0  0.9397326552677507  0.876944213639424  0.721658182056482  1.0000
  Ar  Ar210     1.0  0.21600697882284436  0.3016661660737398  0.6817031834721031  1.0000
  Ar  Ar211     1.0  0.36659628068617467  0.1372686342380361  0.34341336675518214  1.0000
  Ar  Ar212     1.0  0.5354489345047848  0.015328929382603879  0.6658729068894994  1.0000
  Ar  Ar213     1.0  0.8312068903111748  0.9022275637762309  0.40933349264846747  1.0000
  Ar  Ar214     1.0  0.32753675393060844  0.368059713391464  0.5912126148701157  1.0000
  Ar  Ar215     1.0  0.36867551743704763  0.086515083489492  0.43783343758767  1.0000
  Ar  Ar216     1.0  0.9696238898535153  0.6565452058260149  0.4291826247339974  1.0000
  Ar  Ar217     1.0  0.01839160718310148  0.7312046877672499  0.36172826109122075  1.0000
  Ar  Ar218     1.0  0.4481419274704481  0.7817935134050216  0.6237377899675116  1.0000
  Ar  Ar219     1.0  0.6187412154800231  0.8560510048476244  0.2935452611628849  1.0000
  Ar  Ar220     1.0  0.8523520151775007  0.15740909032919284  0.6719988990777539  1.0000
  Ar  Ar221     1.0  0.5918318434469655  0.5698895451161933  0.3394650078244215  1.0000
  Ar  Ar222     1.0  0.8561982388434523  0.6276212255344049  0.5826138916525019  1.0000
  Ar  Ar223     1.0  0.2515819588795933  0.6469958655583804  0.3482238768653682  1.0000
  Ar  Ar224     1.0  0.41902929781633297  0.5204309651758375  0.6649644078634531  1.0000
  Ar  Ar225     1.0  0.588061152063297  0.22358309292336692  0.25921088639520423  1.0000
  Ar  Ar226     1.0  0.7873972414446246  0.2918025134697565  0.5512112823879247  1.0000
  Ar  Ar227     1.0  0.027104307882639206  0.5966235035029867  0.4975835570906676  1.0000
  Ar  Ar228     1.0  0.5407905789536825  0.12426250339363543  0.27550528960613496  1.0000
  Ar  Ar229     1.0  0.8067614361159926  0.5307235531521813  0.5969269848717947  1.0000
  Ar  Ar230     1.0  0.7437196066255858  0.19348905382286669  0.5583364753495251  1.0000
  Ar  Ar231     1.0  0.7178571513030301  0.3785094839934162  0.5236692851116913  1.0000
  Ar  Ar232     1.0  0.7572552091316211  0.1039577194675228  0.3919752643999423  1.0000
  Ar  Ar233     1.0  0.1546474531400872  0.10353842806420839  0.3282319492816738  1.0000
  Ar  Ar234     1.0  0.975689751992611  0.1802375562044115  0.3049310698802118  1.0000
  Ar  Ar235     1.0  0.20057924515396894  0.5454802371396194  0.559929493247131  1.0000
  Ar  Ar236     1.0  0.9848370793739818  0.10419643441530746  0.23366642851042255  1.0000
  Ar  Ar237     1.0  0.391473762912461  0.9537570457373543  0.3155452590205607  1.0000
  Ar  Ar238     1.0  0.008990455053495683  0.7291119733254017  0.6160223927761557  1.0000
  Ar  Ar239     1.0  0.06572021166347362  0.38795485861643525  0.2904545291824075  1.0000
  Ar  Ar240     1.0  0.1063374051215277  0.38625003070517705  0.47935798199768387  1.0000
  Ar  Ar241     1.0  0.6814932414926382  0.7822651486421851  0.5179082302653691  1.0000
  Ar  Ar242     1.0  0.3656379734452506  0.5209094491640663  0.48184917810448724  1.0000
  Ar  Ar243     1.0  0.3556607935176732  0.6148402542713077  0.6516671616667652  1.0000
  Ar  Ar244     1.0  0.17535128071864403  0.1975312796939564  0.6930451684669648  1.0000
  Ar  Ar245     1.0  0.6964435493088619  0.14129748787921018  0.4706777085053424  1.0000
  Ar  Ar246     1.0  0.13247653164945503  0.5766903390785675  0.6367965702850868  1.0000
  Ar  Ar247     1.0  0.09065944315655229  0.4758406492891502  0.6462521796337867  1.0000
  Ar  Ar248     1.0  0.8004571145943663  0.7024129584077764  0.3515997497442439  1.0000
  Ar  Ar249     1.0  0.6552208322297866  0.13102304790863906  0.2854255320686157  1.0000
  Ar  Ar250     1.0  0.4689783054517708  0.6716105610093437  0.35523988128390943  1.0000
  Ar  Ar251     1.0  0.17424047841809212  0.7926855169810239  0.4499616043108208  1.0000
  Ar  Ar252     1.0  0.99922104530021  0.8642679032687361  0.48328106449419717  1.0000
  Ar  Ar253     1.0  0.526714303664058  0.5387076058313712  0.6768233623834297  1.0000
  Ar  Ar254     1.0  0.6845005252748476  0.6858859760924346  0.3568813158248365  1.0000
  Ar  Ar255     1.0  0.1689883893981641  0.2980730836694487  0.4923593529073347  1.0000
  Ar  Ar256     1.0  0.3503083279315676  0.3339978737954725  0.3184877148963787  1.0000
  Ar  Ar257     1.0  0.17306133664282075  0.24871305690073253  0.5933169050195715  1.0000
  Ar  Ar258     1.0  0.31370039852107384  0.6195129389144555  0.2612340733353257  1.0000
  Ar  Ar259     1.0  0.2744765924756382  0.03332225796255404  0.25359380234243684  1.0000
  Ar  Ar260     1.0  0.309978360023036  0.5094768765286694  0.6605828904220479  1.0000
  Ar  Ar261     1.0  0.7205908136373593  0.8822165354191551  0.5552204559783085  1.0000
  Ar  Ar262     1.0  0.06109449289682546  0.7724016985983289  0.7005868757300346  1.0000
  Ar  Ar263     1.0  0.4996230655945838  0.40106231418286004  0.41417781606201304  1.0000
  Ar  Ar264     1.0  0.7688042128848607  0.9247014432684408  0.6401423707386454  1.0000
  Ar  Ar265     1.0  0.8959640547047775  0.3033039026333097  0.5604741211769907  1.0000
  Ar  Ar266     1.0  0.9952940553822031  0.8401475144224183  0.6333761828731456  1.0000
  Ar  Ar267     1.0  0.604473740969889  0.35825393591598154  0.5218796911266034  1.0000
  Ar  Ar268     1.0  0.8091741933269007  0.5724419071567602  0.4969015954045367  1.0000
  Ar  Ar269     1.0  0.0428593570190029  0.04440655333708141  0.43236835308480875  1.0000
  Ar  Ar270     1.0  0.45574179295627393  0.16057446972494085  0.7718451204821711  1.0000
  Ar  Ar271     1.0  0.32800965276885125  0.31412562840479985  0.6862935752502558  1.0000
  Ar  Ar272     1.0  0.11985494242691735  0.8884039236039343  0.2234972773133909  1.0000
  Ar  Ar273     1.0  0.6983065842691716  0.23791181223573377  0.266155337575486  1.0000
  Ar  Ar274     1.0  0.624189340327046  0.7122989348622207  0.594062289988908  1.0000
  Ar  Ar275     1.0  0.9175311040056882  0.6011660833693835  0.3410956306234855  1.0000
  Ar  Ar276     1.0  0.47800270149557467  0.48452941767970964  0.5847940082534743  1.0000
  Ar  Ar277     1.0  0.21872767635790866  0.4580377563845295  0.3926095236798444  1.0000
  Ar  Ar278     1.0  0.456681251804651  0.24353694765547118  0.5166714740026597  1.0000
  Ar  Ar279     1.0  0.5008188999315077  0.29774235503794516  0.6085770206572713  1.0000
  Ar  Ar280     1.0  0.17787318689937526  0.5756437377723986  0.733225183591479  1.0000
  Ar  Ar281     1.0  0.46422322239478303  0.626873707489608  0.6602480143053003  1.0000
  Ar  Ar282     1.0  0.6313781320010765  0.1366257924690724  0.6746783657337851  1.0000
  Ar  Ar283     1.0  0.27603543813672576  0.8284097419754428  0.5546666883064476  1.0000
  Ar  Ar284     1.0  0.2602841689124315  0.12263034227199482  0.3366887991952691  1.0000
  Ar  Ar285     1.0  0.8741634350410354  0.15934562777510722  0.2885579421092935  1.0000
  Ar  Ar286     1.0  0.007585049417219818  0.8403167950860893  0.3766466733332696  1.0000
  Ar  Ar287     1.0  0.5015454096771482  0.45347172235668287  0.3203745039716866  1.0000
  Ar  Ar288     1.0  0.6518633560112317  0.5132231547057055  0.4105958827362585  1.0000
  Ar  Ar289     1.0  0.15782908978582572  0.021113831947909528  0.25478122764289346  1.0000
  Ar  Ar290     1.0  0.48355798408717593  0.9382022425449762  0.7326584423532685  1.0000
  Ar  Ar291     1.0  0.781698788095317  0.3402280786240808  0.4550652804013079  1.0000
  Ar  Ar292     1.0  0.03838041777484661  0.018191317735236547  0.5846588836601272  1.0000
  Ar  Ar293     1.0  0.48228816611461367  0.5647144028508965  0.3334850593581548  1.0000
  Ar  Ar294     1.0  0.8072608424811476  0.10787750760046236  0.5851603277025877  1.0000
  Ar  Ar295     1.0  0.9609456735489748  0.7913026028921877  0.2912369616684445  1.0000
  Ar  Ar296     1.0  0.5946692104123814  0.9950096186204143  0.4195450221468092  1.0000
  Ar  Ar297     1.0  0.7546291231639941  0.05264450306812945  0.505420889295633  1.0000
  Ar  Ar298     1.0  0.2186594791986407  0.8895748521535456  0.4877573418025093  1.0000
  Ar  Ar299     1.0  0.744072498530548  0.1450301533182294  0.6710200105432694  1.0000
  Ar  Ar300     1.0  0.8540719625990406  0.20293452674423365  0.5688896727364683  1.0000
  Ar  Ar301     1.0  0.845840659006762  0.3009779237431601  0.3714006939341764  1.0000
  Ar  Ar302     1.0  0.11859175542170859  0.7346113212280643  0.6198198850076826  1.0000
  Ar  Ar303     1.0  0.5320243896942876  0.6393462418247363  0.2680637338078543  1.0000
  Ar  Ar304     1.0  0.2390320930897771  0.15388819370426868  0.6031071561064665  1.0000
  Ar  Ar305     1.0  0.8978825660895432  0.8610572444873009  0.22186035870835444  1.0000
  Ar  Ar306     1.0  0.10313919552382918  0.0076868119535614295  0.34872858740005325  1.0000
  Ar  Ar307     1.0  0.9665427886084113  0.6391514888204841  0.579119724027042  1.0000
  Ar  Ar308     1.0  0.8398230667000477  0.7767769350384042  0.5506293625225707  1.0000
  Ar  Ar309     1.0  0.6413279256001481  0.02545490922685121  0.6532820526823537  1.0000
  Ar  Ar310     1.0  0.5268898326462295  0.6116254353779484  0.4226750086103212  1.0000
  Ar  Ar311     1.0  0.44750811171982835  0.8987368569034795  0.38725083547639144  1.0000
  Ar  Ar312     1.0  0.34674757134820755  0.22541811413036983  0.5145323375122094  1.0000
  Ar  Ar313     1.0  0.6189233152711342  0.8434805503487018  0.4498218042904776  1.0000
  Ar  Ar314     1.0  0.9342154541977389  0.4934184514208226  0.3281685233707607  1.0000
  Ar  Ar315     1.0  0.8677474703611276  0.11788701493396903  0.40227213966961667  1.0000
  Ar  Ar316     1.0  0.829265354483924  0.3951361830029175  0.5354690651510594  1.0000
  Ar  Ar317     1.0  0.6071806036444483  0.4152360123757773  0.4226650333111637  1.0000
  Ar  Ar318     1.0  0.9153798539763862  0.5486962557362552  0.613344002875192  1.0000
  Ar  Ar319     1.0  0.15274704577789217  0.5261544082939477  0.3243951019223447  1.0000
  Ar  Ar320     1.0  0.6401114860653039  0.6374542258419775  0.26926518983225556  1.0000
  Ar  Ar321     1.0  0.45651866305768884  0.781575602071286  0.36813957434158556  1.0000
  Ar  Ar322     1.0  0.23897419896192362  0.2647574537065664  0.4126667350543077  1.0000
  Ar  Ar323     1.0  0.3730581036246665  0.9564253528102713  0.575675197950114  1.0000
  Ar  Ar324     1.0  0.8632146674354229  0.5782955553163615  0.6995114327416441  1.0000
  Ar  Ar325     1.0  0.7407002073869191  0.23847259486597114  0.46181033646472414  1.0000
  Ar  Ar326     1.0  0.6979243123816623  0.09686802907255682  0.5858047217431671  1.0000
  Ar  Ar327     1.0  0.573794169907539  0.6425512646757507  0.6602699753387888  1.0000
  Ar  Ar328     1.0  0.0016672019941700016  0.31510690294607313  0.5678650253965406  1.0000
  Ar  Ar329     1.0  0.5687748057460723  0.7744590534159994  0.522026911979469  1.0000
  Ar  Ar330     1.0  0.19784391166741466  0.21809463845130528  0.32386655058088004  1.0000
  Ar  Ar331     1.0  0.7476933777787882  0.6199530565149205  0.5747271196224776  1.0000
  Ar  Ar332     1.0  0.541392259355723  0.5039575253876233  0.40653561020965345  1.0000
  Ar  Ar333     1.0  0.3245451705169269  0.4195518955519486  0.4945014725339985  1.0000
  Ar  Ar334     1.0  0.870259254442987  0.5386530986358867  0.41595486913355684  1.0000
  Ar  Ar335     1.0  0.6746237696219137  0.7992177466870505  0.3677872992416611  1.0000
  Ar  Ar336     1.0  0.9161185097593187  0.11565752211674585  0.5928240465641008  1.0000
  Ar  Ar337     1.0  0.2199370086486491  0.021729978515503536  0.3504511233759554  1.0000
  Ar  Ar338     1.0  0.5208899581285021  0.26358375511862897  0.3348050232184406  1.0000
  Ar  Ar339     1.0  0.4733163333894592  0.15844410526228583  0.3467451900943617  1.0000
  Ar  Ar340     1.0  0.7388402892651076  0.34089422513945106  0.26810620320697914  1.0000
  Ar  Ar341     1.0  0.4563819146361894  0.3529114501360133  0.32569561697070537  1.0000
  Ar  Ar342     1.0  0.4079658488077431  0.7348782380717256  0.2860461391576012  1.0000
  Ar  Ar343     1.0  0.5031741542293624  0.9786931690946258  0.31734978401585984  1.0000
  Ar  Ar344     1.0  0.8309539832626918  0.3443059747289147  0.6366229610989552  1.0000
  Ar  Ar345     1.0  0.04423885513083062  0.42023256138380316  0.5562617728868612  1.0000
  Ar  Ar346     1.0  0.18847465718048617  0.6809587816548954  0.4329328744094887  1.0000
  Ar  Ar347     1.0  0.4994313953918041  0.8530358622602687  0.559287279180168  1.0000
  Ar  Ar348     1.0  0.9798729968120233  0.4594897395776989  0.6361063508033555  1.0000
  Ar  Ar349     1.0  0.6132411063437463  0.8676708256957735  0.555182774699722  1.0000
  Ar  Ar350     1.0  0.3033719670897912  0.22727596150481646  0.3340851158880823  1.0000
  Ar  Ar351     1.0  0.742560494562635  0.7264310940126921  0.5902421551037377  1.0000
  Ar  Ar352     1.0  0.11077909228249701  0.874684621731705  0.4909239837268614  1.0000
  Ar  Ar353     1.0  0.9516839930546134  0.8990648002888091  0.3049580685754463  1.0000
  Ar  Ar354     1.0  0.24023551314801686  0.759090530925246  0.3649684533542069  1.0000
  Ar  Ar355     1.0  0.8102871954647807  0.5913451497990433  0.33490212344571096  1.0000
  Ar  Ar356     1.0  0.46379390391893144  0.4127565914362496  0.22621860400721083  1.0000
  Ar  Ar357     1.0  0.696664772998667  0.18942341812921626  0.36683405777326555  1.0000
  Ar  Ar358     1.0  0.5507584285490419  0.9056896207463736  0.6437226080620444  1.0000
  Ar  Ar359     1.0  0.8921217327356299  0.3501187913012666  0.4605230048350545  1.0000
  Ar  Ar360     1.0  0.21784969910276644  0.8681404709715688  0.6392084974557738  1.0000
  Ar  Ar361     1.0  0.9382397919454581  0.9960967762369067  0.25055428171156663  1.0000
  Ar  Ar362     1.0  0.6952234205401056  0.5178167756204032  0.5976554957412671  1.0000
  Ar  Ar363     1.0  0.021724617264701068  0.18254595708699878  0.49869742609651635  1.0000
  Ar  Ar364     1.0  0.19095571494724373  0.08371105521190057  0.6752435794404499  1.0000
  Ar  Ar365     1.0  0.02236678269593624  0.5614403919812657  0.6248388263277975  1.0000
  Ar  Ar366     1.0  0.981981099322966  0.07973594274095269  0.5105028813888015  1.0000
  Ar  Ar367     1.0  0.32668701792727994  0.9042777693218635  0.4888394480044494  1.0000
  Ar  Ar368     1.0  0.6756993454951135  0.279484029744466  0.5397393056893269  1.0000
  Ar  Ar369     1.0  0.8020869300477171  0.15103146343122525  0.477466776978788  1.0000
  Ar  Ar370     1.0  0.6530896361386018  0.40790553888647935  0.6097712342427273  1.0000
  Ar  Ar371     1.0  0.9161097544839866  0.5880575524029256  0.5026258020783485  1.0000
  Ar  Ar372     1.0  0.07112887081763265  0.6986955213818509  0.2711780550983582  1.0000
  Ar  Ar373     1.0  0.372233941809502  0.5510321689809062  0.3290544864325094  1.0000
  Ar  Ar374     1.0  0.6312815114322206  0.17479217183964504  0.546947386770342  1.0000
  Ar  Ar375     1.0  0.5178197271958631  0.3203577833826754  0.24150651842389018  1.0000
  Ar  Ar376     1.0  0.18289841921115668  0.6753293594074042  0.6882834553956401  1.0000
  Ar  Ar377     1.0  0.24323474246350119  0.32073412719523925  0.3162432487540023  1.0000
  Ar  Ar378     1.0  0.8062614697212157  0.08818648169132137  0.7414453080287946  1.0000
  Ar  Ar379     1.0  0.8456168807417307  0.7530655715013062  0.44331012491414096  1.0000
  Ar  Ar380     1.0  0.8952569603835697  0.25447062607798354  0.6578421099382868  1.0000
  Ar  Ar381     1.0  0.20090079213125434  0.6018787251349099  0.26057325548439814  1.0000
  Ar  Ar382     1.0  0.43484237046051927  0.49103633609625635  0.39901067003841545  1.0000
  Ar  Ar383     1.0  0.086919098943984  0.09557977892015937  0.5147120696059617  1.0000
  Ar  Ar384     1.0  0.2950909347291862  0.7233277426227294  0.2825978393032152  1.0000
  Ar  Ar385     1.0  0.7239791341462372  0.8924592042591863  0.4116756112850163  1.0000
  Ar  Ar386     1.0  0.8791196833026608  0.9403003719024348  0.6437686961594  1.0000
  Ar  Ar387     1.0  0.7619224107737153  0.43073749990158383  0.6141018682757049  1.0000
  Ar  Ar388     1.0  0.4517699034896782  0.29769738850767896  0.41855680743072815  1.0000
  Ar  Ar389     1.0  0.6353629136286405  0.22525816540012844  0.4481203180633748  1.0000
  Ar  Ar390     1.0  0.03462591914722202  0.20342553685763043  0.2160968354010672  1.0000
  Ar  Ar391     1.0  0.3948857397824515  0.22393609060324154  0.7016741039327581  1.0000
  Ar  Ar392     1.0  0.698850578598897  0.583612081178606  0.33872836439640425  1.0000
  Ar  Ar393     1.0  0.6614494200675474  0.9465124627197135  0.3428857210577853  1.0000
  Ar  Ar394     1.0  0.5373996488284822  0.039882565094049874  0.5052696677466497  1.0000
  Ar  Ar395     1.0  0.10714649841045397  0.28880848734716363  0.6731586319537701  1.0000
  Ar  Ar396     1.0  0.23217143333787968  0.8999106030049087  0.22854586263678922  1.0000
  Ar  Ar397     1.0  0.6083037475486768  0.46413954443623473  0.3221705886880831  1.0000
  Ar  Ar398     1.0  0.09368643796397486  0.11025751499918329  0.23642764446377873  1.0000
  Ar  Ar399     1.0  0.16874738152105362  0.7909070407711987  0.7058971747397854  1.0000
  Ar  Ar400     1.0  0.781933302598568  0.8194980931682623  0.6274187624495857  1.0000
  Ar  Ar401     1.0  0.5499105872011535  0.5294747574184856  0.248465239363909  1.0000
  Ar  Ar402     1.0  0.314450302596125  0.5866215856590422  0.41310159734121854  1.0000
  Ar  Ar403     1.0  0.0690671837408086  0.17577534805164668  0.6868614159447878  1.0000
  Ar  Ar404     1.0  0.3073437808319228  0.5635191304534631  0.5651872526576456  1.0000
  Ar  Ar405     1.0  0.2722932724725654  0.9637664433107531  0.4219123380020297  1.0000
  Ar  Ar406     1.0  0.8917909665246356  0.7200549898938838  0.6241290229034102  1.0000
  Ar  Ar407     1.0  0.08796935112465323  0.19219447413746568  0.31932849273007097  1.0000
  Ar  Ar408     1.0  0.3477782170935673  0.14578317649461062  0.7644491618305032  1.0000
  Ar  Ar409     1.0  0.01233724452009493  0.8711759708794644  0.2173126344747141  1.0000
  Ar  Ar410     1.0  0.20916395807010169  0.0012552738308599489  0.5052194230051149  1.0000
  Ar  Ar411     1.0  0.8063759823594424  0.2525687975209969  0.28607179280498685  1.0000
  Ar  Ar412     1.0  0.05997755767577158  0.9116361331919954  0.3100896284016691  1.0000
  Ar  Ar413     1.0  0.8481730959820291  0.772329543108266  0.28232668730473515  1.0000
  Ar  Ar414     1.0  0.6098994907910797  0.30764118146036057  0.6216906527251127  1.0000
  Ar  Ar415     1.0  0.9534506854729955  0.6471770063469121  0.6832467165092883  1.0000
  Ar  Ar416     1.0  0.6290958020379351  0.27457052883620875  0.35467026775958166  1.0000
  Ar  Ar417     1.0  0.7841285651445162  0.840234533007924  0.21845910413971562  1.0000
  Ar  Ar418     1.0  0.06510204979103514  0.6619040109254399  0.6836238868670264  1.0000
  Ar  Ar419     1.0  0.257559652883141  0.049102681849365865  0.58938002757453  1.0000
  Ar  Ar420     1.0  0.1457986420203525  0.03530711820614992  0.5875603142383027  1.0000
  Ar  Ar421     1.0  0.7586687076328338  0.5247558530051489  0.410784697812192  1.0000
  Ar  Ar422     1.0  0.12849861381614966  0.7208033517793832  0.5111371903978982  1.0000
  Ar  Ar423     1.0  0.7380861505407732  0.28938619717553576  0.3643742858940135  1.0000
  Ar  Ar424     1.0  0.7377405573100777  0.7390136514148158  0.43658993991639994  1.0000
  Ar  Ar425     1.0  0.4095674125581106  0.6824414154516294  0.5844012531931694  1.0000
  Ar  Ar426     1.0  0.35843545826603346  0.6359727984782447  0.5022014799744345  1.0000
  Ar  Ar427     1.0  0.4340826075908239  0.32995688810898577  0.6892503272002685  1.0000
  Ar  Ar428     1.0  0.7171091837323709  0.04510007143599746  0.30573904806122  1.0000
  Ar  Ar429     1.0  0.7825507571990622  0.3894467718121206  0.3508184026203085  1.0000
  Ar  Ar430     1.0  0.35214378107905003  0.17221599382762812  0.6102060962409863  1.0000
  Ar  Ar431     1.0  0.6202726908941361  0.7384559222567817  0.7043273111226251  1.0000
  Ar  Ar432     1.0  0.5442747636146241  0.9291961840941966  0.49085361801347294  1.0000
  Ar  Ar433     1.0  0.34222085590441  0.7468783882889594  0.5174754463097456  1.0000
  Ar  Ar434     1.0  0.3816730577712788  0.976432729314666  0.4259071143396724  1.0000
  Ar  Ar435     1.0  0.48607264581251963  0.9903504217900264  0.42462184048868123  1.0000
  Ar  Ar436     1.0  0.133749738133769  0.47491375124575175  0.7441534217932855  1.0000
  Ar  Ar437     1.0  0.44149216218912324  0.514683500257023  0.24643198474843758  1.0000
  Ar  Ar438     1.0  0.2460613419585961  0.5941287064264031  0.6498936145398994  1.0000
  Ar  Ar439     1.0  0.7277341464957523  0.867375802543995  0.3043743089688599  1.0000
  Ar  Ar440     1.0  0.7328723729431366  0.7442008616149258  0.700079749085809  1.0000
  Ar  Ar441     1.0  0.6925791004481359  0.5637590615991922  0.497983663516773  1.0000
  Ar  Ar442     1.0  0.5202544699838034  0.5927762081889488  0.5767784367452676  1.0000
  Ar  Ar443     1.0  0.6274868497391752  0.32720308180088775  0.2568236301444361  1.0000
  Ar  Ar444     1.0  0.06540908784526599  0.779694991012317  0.44329712926430276  1.0000
  Ar  Ar445     1.0  0.8178164007934043  0.01913349108016865  0.4231907508320494  1.0000
  Ar  Ar446     1.0  0.7324592156053227  0.7557437148242784  0.2881074821361755  1.0000
  Ar  Ar447     1.0  0.7190431556016691  0.3302424671290084  0.6279291056866736  1.0000
  Ar  Ar448     1.0  0.08770396296984045  0.0712539318637194  0.6687442554019947  1.0000
  Ar  Ar449     1.0  0.3497267104164714  0.2786861303715457  0.41598395334980415  1.0000
  Ar  Ar450     1.0  0.5149804761307775  0.7028568296578936  0.5899182157806843  1.0000
  Ar  Ar451     1.0  0.832025257386645  0.8906746414491954  0.5601011241697997  1.0000
  Ar  Ar452     1.0  0.711744642424252  0.005030939084268754  0.41958196741340753  1.0000
  Ar  Ar453     1.0  0.5619636864043689  0.7957886929146221  0.6308518120419909  1.0000
  Ar  Ar454     1.0  0.8882888088920439  0.8294165271345684  0.6375775571257982  1.0000
  Ar  Ar455     1.0  0.6560849338784482  0.3605093506259853  0.7083371777455463  1.0000
  Ar  Ar456     1.0  0.00650517149384149  0.8144763478548178  0.7927181741532662  1.0000
  Ar  Ar457     1.0  0.1496801711780974  0.062416799389272054  0.432185473772772  1.0000
  Ar  Ar458     1.0  0.7878757190262884  0.24011333042494287  0.6495970033894415  1.0000
  Ar  Ar459     1.0  0.593007008108353  0.4514556788386417  0.6893613623995323  1.0000
  Ar  Ar460     1.0  0.45926908447359777  0.1901088345079451  0.6163561798381687  1.0000
  Ar  Ar461     1.0  0.3903375901522168  0.3348674975362349  0.5029164858803346  1.0000
  Ar  Ar462     1.0  0.025360848233635075  0.1286499577612507  0.5976539736106621  1.0000
  Ar  Ar463     1.0  0.47878645179771545  0.537468506281663  0.4907025795843013  1.0000
  Ar  Ar464     1.0  0.475376344848457  0.10887569961234977  0.44917568046274114  1.0000
  Ar  Ar465     1.0  0.10052806383423714  0.9838848004437039  0.5011802534959394  1.0000
  Ar  Ar466     1.0  0.2844207036467449  0.942771378197246  0.31142109980549376  1.0000
  Ar  Ar467     1.0  0.21878894641560215  0.4029270605596536  0.48438521947671087  1.0000
  Ar  Ar468     1.0  0.03965309091216809  0.09330279996759626  0.33112521786159504  1.0000
  Ar  Ar469     1.0  0.5396510877585143  0.07167063893489471  0.36942431940659576  1.0000
  Ar  Ar470     1.0  0.29738685054262626  0.6982864137678165  0.4333096294716572  1.0000
  Ar  Ar471     1.0  0.38301534810126264  0.8417411065025953  0.5549950961606782  1.0000
  Ar  Ar472     1.0  0.3952463795200041  0.4422782815515512  0.3101878039769134  1.0000
  Ar  Ar473     1.0  0.6807564596054659  0.22720720961870047  0.6350857462846017  1.0000
  Ar  Ar474     1.0  0.021003987182112674  0.2311346121723138  0.4025229435917099  1.0000
  Ar  Ar475     1.0  0.8908297513545472  0.4001136491582171  0.3621478272504898  1.0000
  Ar  Ar476     1.0  0.15321622865012707  0.38944615430948026  0.6640325266090855  1.0000
  Ar  Ar477     1.0  0.5456948480275037  0.34801351558986066  0.6988260744227881  1.0000
  Ar  Ar478     1.0  0.5209312984025312  0.12097623563114679  0.6824353699737061  1.0000
  Ar  Ar479     1.0  0.5618371096227713  0.36391445361155744  0.331309964021198  1.0000
  Ar  Ar480     1.0  0.3584601407007906  0.026737154584082115  0.7541219486652735  1.0000
  Ar  Ar481     1.0  0.25971158665595556  0.45503763603877245  0.5762943618737316  1.0000
  Ar  Ar482     1.0  0.34784934592028804  0.7735207866595166  0.3672416166964107  1.0000
  Ar  Ar483     1.0  0.5080320159687315  0.8337810973223916  0.44900661069337966  1.0000
  Ar  Ar484     1.0  0.6925397041851854  0.0809964513009902  0.7405319307488684  1.0000
  Ar  Ar485     1.0  0.9311815502355771  0.07640124773341028  0.3218285848284225  1.0000
  Ar  Ar486     1.0  0.630943368538567  0.60084409331589  0.5858815051471201  1.0000
  Ar  Ar487     1.0  0.8257101464761913  0.4413413146759477  0.43942133378381343  1.0000
  Ar  Ar488     1.0  0.5651033890273642  0.2074946770303675  0.6235882647138107  1.0000
  Ar  Ar489     1.0  0.40684571297924377  0.7102190494212701  0.4334437659204473  1.0000
  Ar  Ar490     1.0  0.8620560986380833  0.04758345348051682  0.6561532441775375  1.0000
  Ar  Ar491     1.0  0.39030749834458445  0.38943093157027237  0.4071635580495975  1.0000
  Ar  Ar492     1.0  0.22668036606091807  0.8652804185147629  0.3806462828036076  1.0000
  Ar  Ar493     1.0  0.9589875862518993  0.31796583090792474  0.38171244093989193  1.0000
  Ar  Ar494     1.0  0.09015551807429346  0.5595614417378986  0.40896868477846343  1.0000
  Ar  Ar495     1.0  0.09894219324029296  0.9549249074633059  0.6553256734169988  1.0000
  Ar  Ar496     1.0  0.41304610193980934  0.13934430178137908  0.5235739786225163  1.0000
  Ar  Ar497     1.0  0.9516124673369574  0.7641139136372361  0.7038003121744032  1.0000
  Ar  Ar498     1.0  0.9982991608718855  0.3686295019657848  0.4695163682577634  1.0000
  Ar  Ar499     1.0  0.128354141477382  0.7771971797434891  0.2053763099942419  1.0000
  Ar  Ar500     1.0  0.5792012251417668  0.6810856303238172  0.35537273464494884  1.0000
  Ar  Ar501     1.0  0.8065360049729229  0.4815522642156978  0.6987914671139932  1.0000
  Ar  Ar502     1.0  0.9806673292768994  0.9512086668710138  0.6508616500714329  1.0000
  Ar  Ar503     1.0  0.8814349062824987  0.9575930607892954  0.48649157198254356  1.0000
  Ar  Ar504     1.0  0.2089333803086182  0.975070314326079  0.659321115122551  1.0000
  Ar  Ar505     1.0  0.25944429874827607  0.07221418758771518  0.434572334407327  1.0000
  Ar  Ar506     1.0  0.07932638259272756  0.6699538494242893  0.42978569236229136  1.0000
  Ar  Ar507     1.0  0.7609021171607682  0.1571325401961771  0.2903615585976746  1.0000
  Ar  Ar508     1.0  0.9567767425126746  0.26615233123338455  0.4791830056939181  1.0000
  Ar  Ar509     1.0  0.8608595995675155  0.6473791550127834  0.4256448768144192  1.0000
  Ar  Ar510     1.0  0.5095493054961818  0.720518912274119  0.6963396431795184  1.0000
  Ar  Ar511     1.0  0.37441522848936387  0.9215799055697969  0.7290795071563841  1.0000
  Ar  Ar512     1.0  0.6736419239610554  0.3280931923678172  0.44096932879766826  1.0000
